<?xml version="1.0" encoding="UTF-8"?>

<!-- generated on 2023-06-16 00:13:10 by Eclipse SUMO GUI Version 1.11.0
-->

<configuration xmlns:xsi="http://www.w3.org/2001/XMLSchema-instance" xsi:noNamespaceSchemaLocation="http://sumo.dlr.de/xsd/sumoConfiguration.xsd">

    <input>
        <net-file value="/home/veins/src/sumo/docs/hello/mapa2.net.xml"/>
        <route-files value="/home/veins/src/sumo/docs/hello/rutas.rou.xml"/>
        <additional-files value="/home/veins/src/sumo/docs/hello/walls.poly.xml"/>
    </input>

</configuration>
