<?xml version="1.0" encoding="UTF-8"?>

<!-- generated on 2023-06-16 00:12:08 by Eclipse SUMO netedit Version 1.11.0
<configuration xmlns:xsi="http://www.w3.org/2001/XMLSchema-instance" xsi:noNamespaceSchemaLocation="http://sumo.dlr.de/xsd/netconvertConfiguration.xsd">

    <input>
        <sumo-net-file value="/home/veins/src/sumo/docs/hello/mapa2.net.xml"/>
    </input>

    <output>
        <output-file value="/home/veins/src/sumo/docs/hello/mapa2.net.xml"/>
    </output>

    <processing>
        <geometry.min-radius.fix.railways value="false"/>
        <geometry.max-grade.fix value="false"/>
        <offset.disable-normalization value="true"/>
        <lefthand value="false"/>
    </processing>

    <junctions>
        <no-turnarounds value="true"/>
        <junctions.corner-detail value="5"/>
        <junctions.limit-turn-speed value="5.5"/>
        <rectangular-lane-cut value="false"/>
    </junctions>

    <pedestrian>
        <walkingareas value="false"/>
    </pedestrian>

    <report>
        <aggregate-warnings value="5"/>
    </report>

</configuration>
-->

<net version="1.9" junctionCornerDetail="5" limitTurnSpeed="5.50" xmlns:xsi="http://www.w3.org/2001/XMLSchema-instance" xsi:noNamespaceSchemaLocation="http://sumo.dlr.de/xsd/net_file.xsd">

    <location netOffset="0.00,0.00" convBoundary="-677.00,-284.63,775.65,441.59" origBoundary="-10000000000.00,-10000000000.00,10000000000.00,10000000000.00" projParameter="!"/>

    <edge id=":1.a.2_0" function="internal">
        <lane id=":1.a.2_0_0" index="0" speed="8.33" length="1.72" shape="655.11,85.20 654.28,85.35 653.69,85.40 653.11,85.36 652.27,85.22"/>
        <lane id=":1.a.2_0_1" index="1" speed="8.33" length="1.72" shape="654.52,82.06 654.02,82.15 653.67,82.18 653.32,82.15 652.81,82.07"/>
        <lane id=":1.a.2_0_2" index="2" speed="8.33" length="1.72" shape="653.93,78.91 653.76,78.94 653.64,78.95 653.53,78.94 653.36,78.92"/>
    </edge>
    <edge id=":1.a.3_0" function="internal">
        <lane id=":1.a.3_0_0" index="0" speed="8.33" length="1.74" shape="525.66,63.35 524.81,63.20 524.24,63.04 523.71,62.79 522.96,62.37"/>
        <lane id=":1.a.3_0_1" index="1" speed="8.33" length="1.74" shape="526.20,60.20 525.70,60.11 525.35,60.01 525.03,59.86 524.59,59.61"/>
        <lane id=":1.a.3_0_2" index="2" speed="8.33" length="1.74" shape="526.75,57.05 526.58,57.02 526.46,56.98 526.36,56.93 526.21,56.85"/>
    </edge>
    <edge id=":1.a.4_0" function="internal">
        <lane id=":1.a.4_0_0" index="0" speed="8.33" length="0.69" shape="316.92,-58.84 316.86,-58.88 316.82,-58.90 316.78,-58.92 316.72,-58.94"/>
        <lane id=":1.a.4_0_1" index="1" speed="8.33" length="0.69" shape="318.54,-61.60 318.37,-61.70 318.24,-61.77 318.11,-61.83 317.92,-61.91"/>
        <lane id=":1.a.4_0_2" index="2" speed="8.33" length="0.69" shape="320.17,-64.36 319.87,-64.53 319.66,-64.64 319.45,-64.74 319.13,-64.87"/>
    </edge>
    <edge id=":1.a.5_0" function="internal">
        <lane id=":1.a.5_0_0" index="0" speed="8.33" length="1.83" shape="146.74,-128.28 146.58,-128.34 146.46,-128.38 146.33,-128.39 146.15,-128.40"/>
        <lane id=":1.a.5_0_1" index="1" speed="8.33" length="1.83" shape="147.95,-131.24 147.45,-131.44 147.09,-131.54 146.72,-131.58 146.18,-131.60"/>
        <lane id=":1.a.5_0_2" index="2" speed="8.33" length="1.83" shape="149.16,-134.20 148.32,-134.53 147.72,-134.71 147.11,-134.78 146.21,-134.80"/>
    </edge>
    <edge id=":1.b.2_0" function="internal">
        <lane id=":1.b.2_0_0" index="0" speed="4.31" length="3.44" shape="509.79,175.27 509.86,174.94 509.87,174.70 509.81,174.47 509.66,174.17"/>
        <lane id=":1.b.2_0_1" index="1" speed="6.86" length="3.44" shape="512.90,176.02 513.11,175.03 513.14,174.32 512.95,173.63 512.52,172.72"/>
        <lane id=":1.b.2_0_2" index="2" speed="8.33" length="3.44" shape="516.01,176.77 516.36,175.13 516.41,173.94 516.09,172.80 515.37,171.28"/>
    </edge>
    <edge id=":1.b.3_0" function="internal">
        <lane id=":1.b.3_0_0" index="0" speed="8.33" length="1.25" shape="468.93,93.69 468.87,93.58 468.83,93.50 468.78,93.43 468.70,93.34"/>
        <lane id=":1.b.3_0_1" index="1" speed="8.33" length="1.25" shape="471.79,92.24 471.62,91.91 471.48,91.69 471.33,91.49 471.08,91.21"/>
        <lane id=":1.b.3_0_2" index="2" speed="8.33" length="1.25" shape="474.64,90.80 474.36,90.24 474.14,89.88 473.88,89.54 473.47,89.08"/>
    </edge>
    <edge id=":1.b.4_0" function="internal">
        <lane id=":1.b.4_0_0" index="0" speed="8.33" length="0.83" shape="426.14,45.71 426.08,45.65 426.05,45.61 426.00,45.57 425.94,45.52"/>
        <lane id=":1.b.4_0_1" index="1" speed="8.33" length="0.83" shape="428.53,43.58 428.36,43.40 428.24,43.28 428.11,43.16 427.92,43.01"/>
        <lane id=":1.b.4_0_2" index="2" speed="8.33" length="0.83" shape="430.91,41.45 430.64,41.14 430.44,40.94 430.23,40.76 429.90,40.50"/>
    </edge>
    <edge id=":1.b.5_0" function="internal">
        <lane id=":1.b.5_0_0" index="0" speed="8.33" length="1.03" shape="347.87,-16.10 347.79,-16.16 347.74,-16.20 347.68,-16.24 347.58,-16.28"/>
        <lane id=":1.b.5_0_1" index="1" speed="8.33" length="1.03" shape="349.86,-18.61 349.62,-18.80 349.44,-18.92 349.26,-19.02 348.99,-19.16"/>
        <lane id=":1.b.5_0_2" index="2" speed="8.33" length="1.03" shape="351.84,-21.12 351.44,-21.44 351.15,-21.64 350.85,-21.81 350.39,-22.03"/>
    </edge>
    <edge id=":1.b.6_0" function="internal">
        <lane id=":1.b.6_0_0" index="0" speed="8.33" length="0.71" shape="265.44,-56.33 265.38,-56.36 265.34,-56.38 265.29,-56.39 265.22,-56.41"/>
        <lane id=":1.b.6_0_1" index="1" speed="8.33" length="0.71" shape="266.85,-59.20 266.66,-59.30 266.52,-59.35 266.39,-59.40 266.19,-59.47"/>
        <lane id=":1.b.6_0_2" index="2" speed="8.33" length="0.71" shape="268.25,-62.08 267.93,-62.23 267.71,-62.33 267.48,-62.41 267.15,-62.52"/>
    </edge>
    <edge id=":1.b.7_0" function="internal">
        <lane id=":1.b.7_0_0" index="0" speed="8.33" length="3.46" shape="109.98,-105.38 108.93,-105.74 108.22,-106.03 107.53,-106.36 106.51,-106.82"/>
        <lane id=":1.b.7_0_1" index="1" speed="8.33" length="3.46" shape="110.95,-108.43 109.98,-108.76 109.33,-109.04 108.69,-109.34 107.75,-109.76"/>
        <lane id=":1.b.7_0_2" index="2" speed="8.33" length="3.46" shape="111.91,-111.48 111.02,-111.79 110.44,-112.04 109.86,-112.32 109.00,-112.71"/>
    </edge>
    <edge id=":1.c.1_0" function="internal">
        <lane id=":1.c.1_0_0" index="0" speed="8.33" length="28.56" shape="76.78,-119.41 69.76,-123.29 64.97,-126.72 60.03,-128.77 52.54,-128.52"/>
        <lane id=":1.c.1_0_1" index="1" speed="8.33" length="28.56" shape="78.03,-122.36 70.50,-126.44 65.34,-129.95 60.00,-132.00 51.98,-131.67"/>
        <lane id=":1.c.1_0_2" index="2" speed="8.33" length="28.56" shape="79.28,-125.31 71.25,-129.58 65.70,-133.19 59.98,-135.23 51.41,-134.82"/>
    </edge>
    <edge id=":1.c.1_3" function="internal">
        <lane id=":1.c.1_3_0" index="0" speed="8.33" length="28.19" shape="80.04,-128.95 71.85,-129.27 66.21,-129.69 60.62,-129.62 52.54,-128.52"/>
        <lane id=":1.c.1_3_1" index="1" speed="8.33" length="28.19" shape="80.07,-132.15 71.70,-132.47 65.94,-132.88 60.23,-132.80 51.98,-131.67"/>
        <lane id=":1.c.1_3_2" index="2" speed="8.33" length="28.19" shape="80.09,-135.35 71.55,-135.68 65.67,-136.08 59.83,-135.98 51.41,-134.82"/>
    </edge>
    <edge id=":1.c.2_0" function="internal">
        <lane id=":1.c.2_0_0" index="0" speed="8.33" length="36.42" shape="-389.22,-59.43 -425.13,-55.22"/>
        <lane id=":1.c.2_0_1" index="1" speed="8.33" length="36.42" shape="-389.56,-62.61 -425.73,-58.36"/>
        <lane id=":1.c.2_0_2" index="2" speed="8.33" length="36.42" shape="-389.90,-65.79 -426.33,-61.51"/>
    </edge>
    <edge id=":1.c.2_3" function="internal">
        <lane id=":1.c.2_3_0" index="0" speed="9.71" length="36.68" shape="-390.57,-69.49 -425.73,-58.36"/>
        <lane id=":1.c.2_3_1" index="1" speed="9.71" length="36.68" shape="-391.36,-72.59 -426.33,-61.51"/>
        <lane id=":1.c.2_3_2" index="2" speed="9.71" length="36.68" shape="-392.15,-75.69 -426.93,-64.65"/>
    </edge>
    <edge id=":1.d.2_0" function="internal">
        <lane id=":1.d.2_0_0" index="0" speed="11.10" length="0.53" shape="-197.68,-118.55 -197.73,-118.54 -197.77,-118.54 -197.80,-118.53 -197.85,-118.52"/>
        <lane id=":1.d.2_0_1" index="1" speed="11.10" length="0.53" shape="-198.12,-121.72 -198.28,-121.70 -198.38,-121.68 -198.49,-121.66 -198.64,-121.62"/>
        <lane id=":1.d.2_0_2" index="2" speed="11.10" length="0.53" shape="-198.56,-124.89 -198.82,-124.85 -199.00,-124.82 -199.18,-124.78 -199.43,-124.72"/>
    </edge>
    <edge id=":2.a.2_0" function="internal">
        <lane id=":2.a.2_0_0" index="0" speed="8.33" length="28.10" shape="-525.04,-118.44 -517.13,-120.23 -512.19,-123.02 -507.57,-126.74 -500.59,-131.38"/>
        <lane id=":2.a.2_0_1" index="1" speed="8.33" length="28.26" shape="-525.04,-118.44 -516.84,-119.80 -511.40,-121.60 -506.28,-124.36 -499.02,-128.59"/>
        <lane id=":2.a.2_0_2" index="2" speed="8.33" length="28.89" shape="-525.04,-118.44 -516.51,-119.36 -510.61,-120.17 -505.03,-121.95 -497.46,-125.80"/>
    </edge>
    <edge id=":2.a.2_3" function="internal">
        <lane id=":2.a.2_3_0" index="0" speed="8.33" length="29.04" shape="-525.04,-118.44 -496.28,-122.29"/>
        <lane id=":2.a.2_3_1" index="1" speed="8.33" length="29.04" shape="-524.64,-115.26 -495.85,-119.11"/>
        <lane id=":2.a.2_3_2" index="2" speed="8.33" length="29.04" shape="-524.24,-112.09 -495.43,-115.94"/>
    </edge>
    <edge id=":2.c.1_0" function="internal">
        <lane id=":2.c.1_0_0" index="0" speed="8.33" length="1.84" shape="-464.97,-151.39 -464.17,-151.82 -463.60,-152.07 -462.99,-152.21 -462.09,-152.34"/>
        <lane id=":2.c.1_0_1" index="1" speed="8.33" length="1.84" shape="-463.40,-148.60 -462.92,-148.86 -462.58,-149.00 -462.21,-149.09 -461.67,-149.17"/>
        <lane id=":2.c.1_0_2" index="2" speed="8.33" length="1.84" shape="-461.83,-145.81 -461.67,-145.89 -461.56,-145.94 -461.44,-145.97 -461.26,-146.00"/>
    </edge>
    <edge id=":3.a.1_0" function="internal">
        <lane id=":3.a.1_0_0" index="0" speed="6.52" length="9.06" shape="-573.26,-26.98 -575.60,-26.17 -577.12,-24.81 -577.82,-22.88 -577.70,-20.39"/>
    </edge>
    <edge id=":3.a.1_1" function="internal">
        <lane id=":3.a.1_1_0" index="0" speed="8.33" length="11.70" shape="-573.26,-26.98 -585.19,-25.06"/>
        <lane id=":3.a.1_1_1" index="1" speed="8.33" length="11.70" shape="-573.86,-30.12 -585.53,-28.24"/>
        <lane id=":3.a.1_1_2" index="2" speed="8.33" length="11.70" shape="-574.46,-33.26 -585.88,-31.42"/>
        <lane id=":3.a.1_1_3" index="3" speed="8.33" length="11.70" shape="-575.06,-36.41 -586.23,-34.60"/>
    </edge>
    <edge id=":3.a.2_0" function="internal">
        <lane id=":3.a.2_0_0" index="0" speed="11.10" length="0.30" shape="-546.35,143.97 -546.30,144.26"/>
    </edge>
    <edge id=":3.a.3_0" function="internal">
        <lane id=":3.a.3_0_0" index="0" speed="3.91" length="2.45" shape="-511.28,337.91 -511.07,338.54 -510.71,338.97 -510.19,339.19 -509.53,339.21"/>
    </edge>
    <edge id=":3.a.4_0" function="internal">
        <lane id=":3.a.4_0_0" index="0" speed="3.91" length="2.48" shape="-229.84,308.48 -229.19,308.31 -228.73,307.98 -228.47,307.47 -228.42,306.80"/>
    </edge>
    <edge id=":3.a.5_0" function="internal">
        <lane id=":3.a.5_0_0" index="0" speed="6.40" length="9.04" shape="-249.45,-68.82 -249.94,-71.27 -251.10,-72.93 -252.92,-73.80 -255.42,-73.89"/>
    </edge>
    <edge id=":3.a.5_1" function="internal">
        <lane id=":3.a.5_1_0" index="0" speed="8.33" length="12.03" shape="-243.27,-75.50 -255.42,-73.89"/>
        <lane id=":3.a.5_1_1" index="1" speed="8.33" length="12.03" shape="-243.84,-78.65 -255.76,-77.07"/>
        <lane id=":3.a.5_1_2" index="2" speed="8.33" length="12.03" shape="-244.40,-81.80 -256.10,-80.25"/>
    </edge>

    <edge id="E0" from="1.d.1" to="1.d.2" priority="-1">
        <lane id="E0_0" index="0" speed="11.10" length="893.16" shape="686.96,-241.64 -197.68,-118.55"/>
        <lane id="E0_1" index="1" speed="11.10" length="893.16" shape="686.52,-244.81 -198.12,-121.72"/>
        <lane id="E0_2" index="2" speed="11.10" length="893.16" shape="686.08,-247.98 -198.56,-124.89"/>
    </edge>
    <edge id="E1" from="1.d.2" to="1.c.2" priority="-1">
        <lane id="E1_0" index="0" speed="11.10" length="198.86" shape="-197.85,-118.52 -390.57,-69.49"/>
        <lane id="E1_1" index="1" speed="11.10" length="198.86" shape="-198.64,-121.62 -391.36,-72.59"/>
        <lane id="E1_2" index="2" speed="11.10" length="198.86" shape="-199.43,-124.72 -392.15,-75.69"/>
    </edge>
    <edge id="E10" from="2.a.1" to="2.a.2" priority="-1">
        <lane id="E10_0" index="0" speed="8.33" length="147.44" shape="-671.33,-100.03 -525.04,-118.44"/>
        <lane id="E10_1" index="1" speed="8.33" length="147.44" shape="-670.93,-96.85 -524.64,-115.26"/>
        <lane id="E10_2" index="2" speed="8.33" length="147.44" shape="-670.53,-93.68 -524.24,-112.09"/>
    </edge>
    <edge id="E11" from="2.a.2" to="2.b.1" priority="-1">
        <lane id="E11_0" index="0" speed="8.33" length="1249.82" shape="-496.28,-122.29 742.31,-289.42"/>
        <lane id="E11_1" index="1" speed="8.33" length="1249.82" shape="-495.85,-119.11 742.74,-286.25"/>
        <lane id="E11_2" index="2" speed="8.33" length="1249.82" shape="-495.43,-115.94 743.17,-283.08"/>
    </edge>
    <edge id="E12" from="2.a.2" to="2.c.1" priority="-1">
        <lane id="E12_0" index="0" speed="8.33" length="40.86" shape="-500.59,-131.38 -464.97,-151.39"/>
        <lane id="E12_1" index="1" speed="8.33" length="40.86" shape="-499.02,-128.59 -463.40,-148.60"/>
        <lane id="E12_2" index="2" speed="8.33" length="40.86" shape="-497.46,-125.80 -461.83,-145.81"/>
    </edge>
    <edge id="E13" from="2.c.1" to="2.c.2" priority="-1">
        <lane id="E13_0" index="0" speed="8.33" length="1078.60" shape="-462.09,-152.34 607.36,-292.56"/>
        <lane id="E13_1" index="1" speed="8.33" length="1078.60" shape="-461.67,-149.17 607.78,-289.39"/>
        <lane id="E13_2" index="2" speed="8.33" length="1078.60" shape="-461.26,-146.00 608.19,-286.22"/>
    </edge>
    <edge id="E14" from="1.b.1" to="1.b.2" priority="-1">
        <lane id="E14_0" index="0" speed="8.33" length="272.08" shape="445.75,439.71 509.79,175.27"/>
        <lane id="E14_1" index="1" speed="8.33" length="272.08" shape="448.86,440.46 512.90,176.02"/>
        <lane id="E14_2" index="2" speed="8.33" length="272.08" shape="451.97,441.21 516.01,176.77"/>
    </edge>
    <edge id="E16" from="1.b.2" to="1.b.3" priority="-1">
        <lane id="E16_0" index="0" speed="8.33" length="90.20" shape="509.66,174.17 468.93,93.69"/>
        <lane id="E16_1" index="1" speed="8.33" length="90.20" shape="512.52,172.72 471.79,92.24"/>
        <lane id="E16_2" index="2" speed="8.33" length="90.20" shape="515.37,171.28 474.64,90.80"/>
    </edge>
    <edge id="E18" from="1.b.3" to="1.b.4" priority="-1">
        <lane id="E18_0" index="0" speed="8.33" length="63.87" shape="468.70,93.34 426.14,45.71"/>
        <lane id="E18_1" index="1" speed="8.33" length="63.87" shape="471.08,91.21 428.53,43.58"/>
        <lane id="E18_2" index="2" speed="8.33" length="63.87" shape="473.47,89.08 430.91,41.45"/>
    </edge>
    <edge id="E19" from="1.b.4" to="1.b.5" priority="-1">
        <lane id="E19_0" index="0" speed="8.33" length="99.45" shape="425.94,45.52 347.87,-16.10"/>
        <lane id="E19_1" index="1" speed="8.33" length="99.45" shape="427.92,43.01 349.86,-18.61"/>
        <lane id="E19_2" index="2" speed="8.33" length="99.45" shape="429.90,40.50 351.84,-21.12"/>
    </edge>
    <edge id="E20" from="1.b.5" to="1.b.6" priority="-1">
        <lane id="E20_0" index="0" speed="8.33" length="91.38" shape="347.58,-16.28 265.44,-56.33"/>
        <lane id="E20_1" index="1" speed="8.33" length="91.38" shape="348.99,-19.16 266.85,-59.20"/>
        <lane id="E20_2" index="2" speed="8.33" length="91.38" shape="350.39,-22.03 268.25,-62.08"/>
    </edge>
    <edge id="E21" from="1.b.6" to="1.b.7" priority="-1">
        <lane id="E21_0" index="0" speed="8.33" length="162.78" shape="265.22,-56.41 109.98,-105.38"/>
        <lane id="E21_1" index="1" speed="8.33" length="162.78" shape="266.19,-59.47 110.95,-108.43"/>
        <lane id="E21_2" index="2" speed="8.33" length="162.78" shape="267.15,-62.52 111.91,-111.48"/>
    </edge>
    <edge id="E22" from="1.b.7" to="1.c.1" priority="-1">
        <lane id="E22_0" index="0" speed="8.33" length="32.28" shape="106.51,-106.82 76.78,-119.41"/>
        <lane id="E22_1" index="1" speed="8.33" length="32.28" shape="107.75,-109.76 78.03,-122.36"/>
        <lane id="E22_2" index="2" speed="8.33" length="32.28" shape="109.00,-112.71 79.28,-125.31"/>
    </edge>
    <edge id="E23" from="3.a.1" to="3.a.2" priority="-1">
        <lane id="E23_0" index="0" speed="11.10" length="167.32" shape="-577.70,-20.39 -546.35,143.97"/>
    </edge>
    <edge id="E24" from="3.a.2" to="3.a.3" priority="-1">
        <lane id="E24_0" index="0" speed="11.10" length="196.79" shape="-546.30,144.26 -511.28,337.91"/>
    </edge>
    <edge id="E25" from="3.a.3" to="3.a.4" priority="-1">
        <lane id="E25_0" index="0" speed="11.10" length="281.37" shape="-509.53,339.21 -229.84,308.48"/>
    </edge>
    <edge id="E26" from="3.a.4" to="3.a.5" priority="-1">
        <lane id="E26_0" index="0" speed="11.10" length="376.21" shape="-228.42,306.80 -249.45,-68.82"/>
    </edge>
    <edge id="E28" from="1.c.1" to="3.a.5" priority="-1">
        <lane id="E28_0" index="0" speed="8.33" length="300.53" shape="52.54,-128.52 -243.27,-75.50"/>
        <lane id="E28_1" index="1" speed="8.33" length="300.53" shape="51.98,-131.67 -243.84,-78.65"/>
        <lane id="E28_2" index="2" speed="8.33" length="300.53" shape="51.41,-134.82 -244.40,-81.80"/>
    </edge>
    <edge id="E29" from="3.a.5" to="1.c.2" priority="-1">
        <lane id="E29_0" index="0" speed="8.33" length="134.58" shape="-255.42,-73.89 -389.22,-59.43"/>
        <lane id="E29_1" index="1" speed="8.33" length="134.58" shape="-255.76,-77.07 -389.56,-62.61"/>
        <lane id="E29_2" index="2" speed="8.33" length="134.58" shape="-256.10,-80.25 -389.90,-65.79"/>
    </edge>
    <edge id="E3" from="1.a.1" to="1.a.2" priority="-1">
        <lane id="E3_0" index="0" speed="8.33" length="124.17" shape="777.13,62.18 655.11,85.20"/>
        <lane id="E3_1" index="1" speed="8.33" length="124.17" shape="776.54,59.04 654.52,82.06"/>
        <lane id="E3_2" index="2" speed="8.33" length="124.17" shape="775.95,55.89 653.93,78.91"/>
    </edge>
    <edge id="E30" from="1.c.2" to="3.a.1" priority="-1">
        <lane id="E30_0" index="0" speed="8.33" length="150.80" shape="-425.13,-55.22 -573.26,-26.98"/>
        <lane id="E30_1" index="1" speed="8.33" length="150.80" shape="-425.73,-58.36 -573.86,-30.12"/>
        <lane id="E30_2" index="2" speed="8.33" length="150.80" shape="-426.33,-61.51 -574.46,-33.26"/>
        <lane id="E30_3" index="3" speed="8.33" length="150.80" shape="-426.93,-64.65 -575.06,-36.41"/>
    </edge>
    <edge id="E31" from="3.a.1" to="1.c.3" priority="-1">
        <lane id="E31_0" index="0" speed="8.33" length="91.14" shape="-585.19,-25.06 -675.78,-15.13"/>
        <lane id="E31_1" index="1" speed="8.33" length="91.14" shape="-585.53,-28.24 -676.13,-18.31"/>
        <lane id="E31_2" index="2" speed="8.33" length="91.14" shape="-585.88,-31.42 -676.48,-21.49"/>
        <lane id="E31_3" index="3" speed="8.33" length="91.14" shape="-586.23,-34.60 -676.83,-24.67"/>
    </edge>
    <edge id="E4" from="1.a.2" to="1.a.3" priority="-1">
        <lane id="E4_0" index="0" speed="8.33" length="128.48" shape="652.27,85.22 525.66,63.35"/>
        <lane id="E4_1" index="1" speed="8.33" length="128.48" shape="652.81,82.07 526.20,60.20"/>
        <lane id="E4_2" index="2" speed="8.33" length="128.48" shape="653.36,78.92 526.75,57.05"/>
    </edge>
    <edge id="E6" from="1.a.3" to="1.a.4" priority="-1">
        <lane id="E6_0" index="0" speed="8.33" length="239.05" shape="522.96,62.37 316.92,-58.84"/>
        <lane id="E6_1" index="1" speed="8.33" length="239.05" shape="524.59,59.61 318.54,-61.60"/>
        <lane id="E6_2" index="2" speed="8.33" length="239.05" shape="526.21,56.85 320.17,-64.36"/>
    </edge>
    <edge id="E7" from="1.a.4" to="1.a.5" priority="-1">
        <lane id="E7_0" index="0" speed="8.33" length="183.57" shape="316.72,-58.94 146.74,-128.28"/>
        <lane id="E7_1" index="1" speed="8.33" length="183.57" shape="317.92,-61.91 147.95,-131.24"/>
        <lane id="E7_2" index="2" speed="8.33" length="183.57" shape="319.13,-64.87 149.16,-134.20"/>
    </edge>
    <edge id="E8" from="1.a.5" to="1.c.1" priority="-1">
        <lane id="E8_0" index="0" speed="8.33" length="66.11" shape="146.15,-128.40 80.04,-128.95"/>
        <lane id="E8_1" index="1" speed="8.33" length="66.11" shape="146.18,-131.60 80.07,-132.15"/>
        <lane id="E8_2" index="2" speed="8.33" length="66.11" shape="146.21,-134.80 80.09,-135.35"/>
    </edge>

    <junction id="1.a.1" type="dead_end" x="775.65" y="54.32" incLanes="" intLanes="" shape="775.65,54.32 777.43,63.75"/>
    <junction id="1.a.2" type="priority" x="653.63" y="77.34" incLanes="E3_0 E3_1 E3_2" intLanes=":1.a.2_0_0 :1.a.2_0_1 :1.a.2_0_2" shape="655.41,86.77 653.63,77.34 652.00,86.80 653.26,86.99 653.70,87.01 654.15,86.99 654.69,86.91">
        <request index="0" response="000" foes="000" cont="0"/>
        <request index="1" response="000" foes="000" cont="0"/>
        <request index="2" response="000" foes="000" cont="0"/>
    </junction>
    <junction id="1.a.3" type="priority" x="527.02" y="55.47" incLanes="E4_0 E4_1 E4_2" intLanes=":1.a.3_0_0 :1.a.3_0_1 :1.a.3_0_2" shape="525.39,64.93 527.02,55.47 522.15,63.74 523.27,64.37 523.69,64.55 524.12,64.69 524.66,64.80">
        <request index="0" response="000" foes="000" cont="0"/>
        <request index="1" response="000" foes="000" cont="0"/>
        <request index="2" response="000" foes="000" cont="0"/>
    </junction>
    <junction id="1.a.4" type="priority" x="320.38" y="-66.09" incLanes="E6_0 E6_1 E6_2" intLanes=":1.a.4_0_0 :1.a.4_0_1 :1.a.4_0_2" shape="316.11,-57.46 320.98,-65.74 320.53,-66.00 320.37,-66.08 320.21,-66.15 320.01,-66.24 319.74,-66.35">
        <request index="0" response="000" foes="000" cont="0"/>
        <request index="1" response="000" foes="000" cont="0"/>
        <request index="2" response="000" foes="000" cont="0"/>
    </junction>
    <junction id="1.a.5" type="priority" x="148.06" y="-136.38" incLanes="E7_0 E7_1 E7_2" intLanes=":1.a.5_0_0 :1.a.5_0_1 :1.a.5_0_2" shape="146.14,-126.80 149.76,-135.68 148.50,-136.17 148.04,-136.29 147.57,-136.36 146.99,-136.38 146.22,-136.40">
        <request index="0" response="000" foes="000" cont="0"/>
        <request index="1" response="000" foes="000" cont="0"/>
        <request index="2" response="000" foes="000" cont="0"/>
    </junction>
    <junction id="1.b.1" type="dead_end" x="453.53" y="441.59" incLanes="" intLanes="" shape="453.53,441.59 444.20,439.33"/>
    <junction id="1.b.2" type="priority" x="518.40" y="173.71" incLanes="E14_0 E14_1 E14_2" intLanes=":1.b.2_0_0 :1.b.2_0_1 :1.b.2_0_2" shape="516.80,170.55 508.24,174.89 517.57,177.15 518.05,174.66 518.04,173.75 517.84,172.86 517.43,171.85">
        <request index="0" response="000" foes="000" cont="0"/>
        <request index="1" response="000" foes="000" cont="0"/>
        <request index="2" response="000" foes="000" cont="0"/>
    </junction>
    <junction id="1.b.3" type="priority" x="475.50" y="88.95" incLanes="E16_0 E16_1 E16_2" intLanes=":1.b.3_0_0 :1.b.3_0_1 :1.b.3_0_2" shape="467.50,94.41 476.07,90.07 475.64,89.25 475.47,88.97 475.27,88.71 475.02,88.41 474.66,88.01">
        <request index="0" response="000" foes="000" cont="0"/>
        <request index="1" response="000" foes="000" cont="0"/>
        <request index="2" response="000" foes="000" cont="0"/>
    </junction>
    <junction id="1.b.4" type="priority" x="431.55" y="39.76" incLanes="E18_0 E18_1 E18_2" intLanes=":1.b.4_0_0 :1.b.4_0_1 :1.b.4_0_2" shape="424.95,46.78 432.11,40.38 431.69,39.93 431.54,39.77 431.38,39.63 431.17,39.46 430.90,39.24">
        <request index="0" response="000" foes="000" cont="0"/>
        <request index="1" response="000" foes="000" cont="0"/>
        <request index="2" response="000" foes="000" cont="0"/>
    </junction>
    <junction id="1.b.5" type="priority" x="352.02" y="-23.02" incLanes="E19_0 E19_1 E19_2" intLanes=":1.b.5_0_0 :1.b.5_0_1 :1.b.5_0_2" shape="346.88,-14.84 352.83,-22.38 352.23,-22.85 352.01,-23.00 351.77,-23.13 351.48,-23.28 351.09,-23.47">
        <request index="0" response="000" foes="000" cont="0"/>
        <request index="1" response="000" foes="000" cont="0"/>
        <request index="2" response="000" foes="000" cont="0"/>
    </junction>
    <junction id="1.b.6" type="priority" x="268.31" y="-63.83" incLanes="E20_0 E20_1 E20_2" intLanes=":1.b.6_0_0 :1.b.6_0_1 :1.b.6_0_2" shape="264.74,-54.89 268.95,-63.52 268.47,-63.75 268.31,-63.82 268.13,-63.88 267.92,-63.95 267.63,-64.04">
        <request index="0" response="000" foes="000" cont="0"/>
        <request index="1" response="000" foes="000" cont="0"/>
        <request index="2" response="000" foes="000" cont="0"/>
    </junction>
    <junction id="1.b.7" type="priority" x="112.39" y="-113.01" incLanes="E21_0 E21_1 E21_2" intLanes=":1.b.7_0_0 :1.b.7_0_1 :1.b.7_0_2" shape="109.50,-103.85 112.39,-113.01 111.35,-113.38 110.99,-113.55 110.64,-113.72 110.21,-113.92 109.63,-114.18 105.88,-105.34 107.21,-104.75 107.67,-104.53 108.13,-104.33 108.71,-104.12">
        <request index="0" response="000" foes="000" cont="0"/>
        <request index="1" response="000" foes="000" cont="0"/>
        <request index="2" response="000" foes="000" cont="0"/>
    </junction>
    <junction id="1.c.1" type="right_before_left" x="55.42" y="-137.16" incLanes="E22_0 E22_1 E22_2 E8_0 E8_1 E8_2" intLanes=":1.c.1_0_0 :1.c.1_0_1 :1.c.1_0_2 :1.c.1_3_0 :1.c.1_3_1 :1.c.1_3_2" shape="76.16,-117.94 79.91,-126.78 80.03,-127.35 80.11,-136.95 73.92,-137.13 65.53,-137.68 61.76,-137.70 57.22,-137.33 51.13,-136.39 52.83,-126.94 58.03,-127.38 61.79,-126.67 64.79,-125.10 67.73,-122.93 71.29,-120.46">
        <request index="0" response="000000" foes="111000" cont="0"/>
        <request index="1" response="000000" foes="111000" cont="0"/>
        <request index="2" response="000000" foes="111000" cont="0"/>
        <request index="3" response="000111" foes="000111" cont="0"/>
        <request index="4" response="000111" foes="000111" cont="0"/>
        <request index="5" response="000111" foes="000111" cont="0"/>
    </junction>
    <junction id="1.c.2" type="right_before_left" x="-461.75" y="-59.64" incLanes="E29_0 E29_1 E29_2 E1_0 E1_1 E1_2" intLanes=":1.c.2_0_0 :1.c.2_0_1 :1.c.2_0_2 :1.c.2_3_0 :1.c.2_3_1 :1.c.2_3_2" shape="-389.05,-57.84 -390.08,-67.38 -390.18,-67.94 -392.54,-77.24 -427.23,-66.22 -424.83,-53.65">
        <request index="0" response="000000" foes="111000" cont="0"/>
        <request index="1" response="000000" foes="111000" cont="0"/>
        <request index="2" response="000000" foes="111000" cont="0"/>
        <request index="3" response="000111" foes="000111" cont="0"/>
        <request index="4" response="000111" foes="000111" cont="0"/>
        <request index="5" response="000111" foes="000111" cont="0"/>
    </junction>
    <junction id="1.c.3" type="dead_end" x="-677.00" y="-26.26" incLanes="E31_0 E31_1 E31_2 E31_3" intLanes="" shape="-675.60,-13.54 -677.00,-26.26"/>
    <junction id="1.d.1" type="dead_end" x="685.86" y="-249.56" incLanes="" intLanes="" shape="685.86,-249.56 687.18,-240.05"/>
    <junction id="1.d.2" type="priority" x="-199.31" y="-126.40" incLanes="E0_0 E0_1 E0_2" intLanes=":1.d.2_0_0 :1.d.2_0_1 :1.d.2_0_2" shape="-197.46,-116.96 -198.78,-126.47 -199.17,-126.42 -199.31,-126.39 -199.44,-126.36 -199.83,-126.27">
        <request index="0" response="000" foes="000" cont="0"/>
        <request index="1" response="000" foes="000" cont="0"/>
        <request index="2" response="000" foes="000" cont="0"/>
    </junction>
    <junction id="2.a.1" type="dead_end" x="-670.33" y="-92.09" incLanes="" intLanes="" shape="-670.33,-92.09 -671.53,-101.61"/>
    <junction id="2.a.2" type="priority" x="-520.69" y="-110.92" incLanes="E10_0 E10_1 E10_2" intLanes=":2.a.2_0_0 :2.a.2_0_1 :2.a.2_0_2 :2.a.2_3_0 :2.a.2_3_1 :2.a.2_3_2" shape="-495.21,-114.36 -496.50,-123.87 -496.67,-124.41 -501.37,-132.78 -506.31,-129.65 -509.82,-126.90 -512.70,-124.55 -515.71,-122.61 -519.63,-121.09 -525.24,-120.02 -524.04,-110.50">
        <request index="0" response="000000" foes="000000" cont="0"/>
        <request index="1" response="000000" foes="000000" cont="0"/>
        <request index="2" response="000000" foes="000000" cont="0"/>
        <request index="3" response="000000" foes="000000" cont="0"/>
        <request index="4" response="000000" foes="000000" cont="0"/>
        <request index="5" response="000000" foes="000000" cont="0"/>
    </junction>
    <junction id="2.b.1" type="dead_end" x="743.38" y="-281.49" incLanes="E11_0 E11_1 E11_2" intLanes="" shape="742.10,-291.00 743.38,-281.49"/>
    <junction id="2.c.1" type="priority" x="-461.05" y="-144.41" incLanes="E12_0 E12_1 E12_2" intLanes=":2.c.1_0_0 :2.c.1_0_1 :2.c.1_0_2" shape="-461.05,-144.41 -462.30,-153.93 -463.64,-153.72 -464.11,-153.60 -464.55,-153.42 -465.07,-153.16 -465.75,-152.78">
        <request index="0" response="000" foes="000" cont="0"/>
        <request index="1" response="000" foes="000" cont="0"/>
        <request index="2" response="000" foes="000" cont="0"/>
    </junction>