<?xml version="1.0" encoding="UTF-8"?>

<!-- generated on 2023-06-21 21:18:02 by Eclipse SUMO netedit Version 1.11.0
-->

<routes xmlns:xsi="http://www.w3.org/2001/XMLSchema-instance" xsi:noNamespaceSchemaLocation="http://sumo.dlr.de/xsd/routes_file.xsd">
    <route edges="E14 E16 E18 E19 E20 E21 E22 E28 E29 E30 E31" color="yellow" id="route_0"/>
    <route edges="E14 E16 E18 E19 E20 E21 E22 E28 E29 E30 E23 E24 E25 E26 E29 E30 E31" color="yellow" id="route_1"/>
    <route edges="E3 E4 E6 E7 E8 E28 E29 E30 E31" color="yellow" id="route_2"/>
    <route edges="E3 E4 E6 E7 E8 E28 E29 E30 E23 E24 E25 E26 E29 E30 E31" color="yellow" id="route_3"/>
    <route edges="E0 E1 E30 E31" color="yellow" id="route_4"/>
    <route edges="E0 E1 E30 E23 E24 E25 E26 E29 E30 E31" color="yellow" id="route_5"/>
    <route edges="E10 E11" color="yellow" id="route_6"/>
    <route edges="E10 E12 E13" color="yellow" id="route_7"/>
    <vehicle id="vehicle_0" depart="0.00" color="yellow" route="route_1"/>
    <vehicle id="vehicle_1" depart="2.00" route="route_1"/>
    <vehicle id="vehicle_2" depart="4.00" route="route_3"/>
    <vehicle id="vehicle_3" depart="5.00" route="route_5"/>
    <vehicle id="vehicle_4" depart="6.00" route="route_0"/>
        <vehicle id="vehicle_13" depart="7.00" route="route_2"/>
    <vehicle id="vehicle_10" depart="8.00" route="route_2"/>
    <vehicle id="vehicle_5" depart="8.00" route="route_2"/>
    <vehicle id="vehicle_11" depart="9.00" route="route_4"/>
    <vehicle id="vehicle_6" depart="9.00" route="route_4"/>
    <vehicle id="vehicle_9" depart="88.00" route="route_4"/>
    <vehicle id="vehicle_7" depart="154.00" route="route_0"/>
    <vehicle id="vehicle_8" depart="160.00" route="route_2"/>
</routes>
